%chk=test2.chk
#p hf/6-31g sp int=superfinegrid scf=(fermi,novaracc)

Gaussian input file generated by gausspimom

0 1
O 0.000000 0.000000 0.000000
H 0.758602 0.000000 0.504284
H -0.758602 0.000000 0.504284


--Link1--
%oldchk=test2.chk
%chk=test2-stab.chk
#p hf guess=read stable=opt chkbasis geom=check

Gaussian input file generated by gausspimom (stability check)

0 1


