%Chk=distort_m001p.chk
#P B3LYP def2TZVP int=superfinegrid scf=(novaracc,fermi,xqc)

Distorted seed

-1 24
 Gd   0.87771700  2.02742100 -0.01273992
 Gd  -2.19579700 -0.25395900 -0.07627653
 Gd   1.31781000 -1.77352300  0.08901645
 O    1.94326400  0.22500700 -0.82738893
 O   -0.77571700 -1.79313500 -0.10181838
 O   -1.16538400  1.56861500  0.95466015

