%Chk=distort_m002n.chk
#P B3LYP def2TZVP int=superfinegrid scf=(novaracc,fermi,xqc)

Distorted seed

-1 24
 Gd   0.87771700  2.02742100 -0.10216792
 Gd  -2.19579700 -0.25395900  0.03839947
 Gd   1.31781000 -1.77352300  0.02545998
 O    1.94326400  0.22500700  0.71501747
 O   -0.77571700 -1.79313500 -0.90662883
 O   -1.16538400  1.56861500  0.52361511

