%chk=test1.chk
#p b3lyp/6-31g(d) opt freq int=superfinegrid scf=(fermi,novaracc)

Gaussian input file generated by gausspimom

0 1
O 0.000000 0.000000 0.117790
H 0.000000 0.757160 -0.471160
H 0.000000 -0.757160 -0.471160


--Link1--
%oldchk=test1.chk
%chk=test1-stab.chk
#p b3lyp guess=read stable=opt chkbasis geom=check

Gaussian input file generated by gausspimom (stability check)

0 1


